cse-cc-import-runner-app/src/test/resources/testWalid/20230719_1330_113_CSE1.uct
##C 2007.05.01
Generated by powsybl, 2023-07-19T03:58:25.343+02:00
Case date: 2023-07-19T13:30:00.000+02:00
##N
##ZAT
O6MNGN21 Meiningen    0 0        0.00000 6.51065 0.00000 -6.4675                 6.51065 -6.4675                               F
O6MNGN22 Meiningen    0 2 239.28 0.00000 6.51065 0.00000 37.0621                 200.000 -200.00                               F
O6MNGN51 Meiningen    0 0        0.00000 0.00000 0.00000 0.00000
O6MNGN52 Meiningen    0 0        0.00000 0.00000 0.00000 0.00000
O6MNGN59 Meiningen    0 0        0.00000 0.00000 0.00000 0.00000
O6WALG21 Walgauwerk   0 2 239.79 0.00000 0.00000 0.00000 -3.6955 0.00000 -86.000 200.000 -200.00                               F
O6WERB21 Werben       0 2 239.69 0.00000 0.00000 0.00000 -59.813                 200.000 -200.00                               F
O6WERB22 Werben       0 0        0.00000 0.00000 0.00000 -48.961                 0.00000 -48.961                               F
O6WERB51 Werben       0 0        98.6548 0.00000 -8.0657 0.00000 0.00000 -15.669                                               F
O6WERB52 Werben       0 0        0.00000 0.00000 0.00000 0.00000
O9KIRB21 Kirchbichl   0 0        0.00000 0.00000 -1.0000 -18.355 -1.0000 -1.0000 0.00000 -18.355                               F
O9KIRB22 Kirchbichl   0 0        0.00000 0.00000 -1.0000 0.00000 -1.0000 -1.0000                                               F
O9KIRB51 Kirchbichl   0 0        146.473 0.00000 -29.417 0.00000 0.00000 -40.207                                               F
O9KIRB52 Kirchbichl   0 0        0.00000 0.00000 -10.000 0.00000 0.00000 -10.000                                               F
O9PRUT21 Prutz        0 2 238.23 0.00000 0.00000 -163.15 217.645 0.00000 -392.00 400.000 -400.00                               F
O9PRUT22 Prutz        0 0        0.00000 0.00000 -163.15 -73.653 0.00000 -392.00 0.00000 -73.653                               F
O9PRUT51 Prutz        0 0        0.00000 0.00000 -46.000 0.00000 -46.000 -46.000                                               F
O9STRA21 Strass       0 0        0.00000 0.00000 0.00000 0.00000
O9THAU21 Thaur        0 0        0.00000 17.9051 -3.0000 0.00000 -3.0000 -3.0000 17.9051 0.00000                               F
O9THAU22 Thaur        0 0        0.00000 0.00000 -3.0000 0.00000 -3.0000 -3.0000                                               F
O9THAU51 Thaur        0 0        20.2970 0.00000 -26.657 0.00000 0.00000 -41.949                                               F
O9THAU52 Thaur        0 0        0.00000 0.00000 0.00000 0.00000
O9VILL21 Vill         0 2 237.77 0.00000 0.00000 0.00000 55.0533                 200.000 -200.00                               F
O9VILL22 Vill         0 0        0.00000 21.1813 0.00000 0.00000                 21.1813 0.00000                               F
O9VILL51 Vill         0 0        20.2970 0.00000 -41.884 0.00000 0.00000 -65.164                                               F
O9VILL52 Vill         0 0        0.00000 0.00000 0.00000 0.00000
O9YVIL21 Y_Vill       0 0        0.00000 0.00000 0.00000 0.00000
O9YVIL22 Y_Vill       0 0        0.00000 0.00000 0.00000 0.00000
OABW  51 AbwindenAste 0 0        15.0557 0.00000 -99.162 0.00000 0.00000 -176.97                                               F
OABW  52 AbwindenAste 0 0        0.00000 0.00000 0.00000 0.00000
OAIGER51 Aigerding    0 0        15.5177 0.00000 -6.9049 0.00000 0.00000 -8.2876                                               F
OALTEN21 Altenwoerth  0 0        0.00000 4.19917 -57.813 0.00000 0.00000 -333.00 4.19917 0.00000                               F
OALTEN22 Altenwoerth  0 0        0.00000 2.85803 -57.813 0.00000 0.00000 -333.00 2.85803 0.00000                               F
OALTEN23 Altenwoerth  0 0        0.00000 3.91941 -57.813 0.00000 0.00000 -333.00 3.91941 0.00000                               F
OAMSCH51 AmSchuss     0 0        7.47253 0.00000 -7.9561 0.00000 0.00000 -10.028                                               F
OAMSTE51 Amstetten    0 0        80.3218 0.00000 -19.014 0.00000 0.00000 -23.511                                               F
OAMSTE52 Amstetten    0 0        0.00000 0.00000 0.00000 0.00000
OANDAU51 Andau        0 0        0.00000 0.00000 -89.982 0.00000 0.00000 -247.53                                               F
OANNAB51 Annaberg     0 0        4.33817 0.00000 -2.3162 0.00000 0.00000 -25.722                                               F
OANTHI51 Antiesenhofe 0 0        7.42634 0.00000 -9.7696 0.00000 0.00000 -12.409                                               F
OARST 51 Arnstein     0 0        11.1000 0.00000 -25.731 0.00000 0.00000 -78.127                                               F
OARST 52 Arnstein     0 0        0.00000 0.00000 0.00000 0.00000
OARTHU51 Arthurwerk   0 0        0.00000 0.00000 -8.0000 0.00000 0.00000 -40.000                                               F
OARTHU52 Arthurwerk   0 0        0.00000 0.00000 0.00000 0.00000
OASCHA21 Aschach      0 0        0.00000 10.5597 -144.88 0.00000 0.00000 -288.00 10.5597 0.00000                               F
OASPER51 Aspern       0 0        0.00000 0.00000 0.00000 0.00000
OAUEN 51 Auen         0 0        57.4519 0.00000 -29.226 0.00000 0.00000 -45.373                                               F
OAUEN 52 Auen         0 0        45.6662 0.00000 0.00000 0.00000
OAUSSE51 Ausserfragan 0 0        0.00000 0.00000 -76.652 0.00000 235.200 -500.04                                               F
OAUSSE52 Ausserfragan 0 0        0.00000 0.00000 0.00000 0.00000
OBADEN51 Baden        0 0        0.00000 0.00000 0.00000 0.00000
OBAEB 51 Baernbach    0 0        30.9195 0.00000 -8.1338 0.00000 0.00000 -15.895                                               F
OBAEB 52 Baernbach    0 0        0.00000 0.00000 0.00000 0.00000
OBAUMK51 Baumkirchen  0 0        78.3367 0.00000 -177.50 0.00000 0.00000 -177.50                                               F
OBAUMK52 Baumkirchen  0 0        0.00000 0.00000 0.00000 0.00000
OBAUSS51 BadAussee    0 0        4.60009 0.00000 -0.1125 0.00000 0.00000 -0.2397                                               F
OBERGE51 Bergern      0 0        0.00000 0.00000 -41.770 0.00000 0.00000 -63.000                                               F
OBERGE52 Bergern      0 0        0.00000 0.00000 -71.402 0.00000 0.00000 -126.00                                               F
OBISAM11 Bisamberg    0 0        0.00000 3.52563 0.00000 -8.8360                 3.52563 -8.8360                               F
OBISAM12 Bisamberg    0 0        0.00000 1.87418 0.00000 -6.9571                 1.87418 -6.9571                               F
OBISAM21 Bisamberg    0 0        0.00000 80.4468 0.00000 -6.2477                 80.4468 -6.2477                               F
OBISAM22 Bisamberg    0 0        0.00000 0.00000 0.00000 0.00000
OBISAM51 Bisamberg    0 0        0.00000 0.00000 0.00000 0.00000
OBISAM52 Bisamberg    0 0        16.0591 0.00000 -19.776 0.00000 0.00000 -46.729                                               F
OBISAM54 Bisamberg    0 0        0.00000 0.00000 0.00000 0.00000
OBISAM55 Bisamberg    0 0        0.00000 0.00000 0.00000 0.00000
OBISAM56 Bisamberg    0 0        0.00000 0.00000 0.00000 0.00000
OBOCKF51 Bockfliess   0 0        0.00000 0.00000 -19.378 0.00000 0.00000 -53.565                                               F
OBRAUN51 Braunau      0 0        0.00000 0.00000 -75.468 0.00000 0.00000 -75.468                                               F
OBRAUN52 Braunau      0 0        0.00000 0.00000 0.00000 0.00000
OBREDE51 Brederis     0 0        72.4522 0.00000 -18.183 0.00000 0.00000 -52.448                                               F
OBRUCK51 BruckLeitha  0 0        18.4647 0.00000 -32.902 0.00000 0.00000 -97.488                                               F
OBRUEC51 Brueckl      0 0        41.9613 0.00000 -12.232 0.00000 0.00000 -15.773                                               F
OBRUEC52 Brueckl      0 0        0.00000 0.00000 0.00000 0.00000
OBRUM 51 Bruck_Mur    0 0        71.6006 0.00000 -23.123 0.00000 0.00000 -23.123                                               F
OBRUM 52 Bruck_Mur    0 0        0.00000 0.00000 0.00000 0.00000
OBUVKW51 Buers_VKW    0 0        0.00000 0.00000 0.00000 0.00000
ODEUTS51 DeutschAlten 0 0        0.00000 0.00000 0.00000 0.00000
ODEUTS52 DeutschAlten 0 0        3.49343 0.00000 -17.202 0.00000 0.00000 -50.578                                               F
ODIEB 51 Diesbach_Saa 0 0        29.9914 0.00000 -11.967 0.00000 32.0000 -44.298                                               F
ODIEB 52 Diesbach_Saa 0 0        0.00000 0.00000 0.00000 0.00000
ODONST51 Donaustadt   0 0        0.00000 0.00000 -28.821 0.00000 0.00000 -434.50                                               F
ODUERN11 Duernrohr    0 2 415.73 0.00000 0.00000 0.00000 -113.44                                                               F
ODUERN12 Duernrohr    0 0        0.00000 0.00000 0.00000 0.00000
ODUERN13 Duernrohr    0 0        0.00000 0.00000 0.00000 0.00000
ODUERN21 Duernrohr    0 0        0.00000 107.942 0.00000 0.00000                 107.942 0.00000                               F
ODUERN22 Duernrohr    0 0        0.00000 0.00000 0.00000 -24.724                 0.00000 -24.724                               F
ODUERN51 Duernrohr    0 0        31.7591 0.00000 -12.040 0.00000 0.00000 -28.779                                               F
ODUERN52 Duernrohr    0 0        0.00000 0.00000 -27.000 0.00000 0.00000 -37.000                                               F
OEBENF51 Ebenfurth    0 0        0.00000 0.00000 0.00000 0.00000
OEBENF52 Ebenfurth    0 0        0.00000 0.00000 0.00000 0.00000
OEBREI51 Ebreichsdorf 0 0        0.00000 0.00000 0.00000 0.00000
OEDLIN21 Edling       0 0        0.00000 1.28230 -47.400 0.00000 0.00000 -86.000 1.28230 0.00000                               F
OEFERD51 Eferding     0 0        27.6165 0.00000 -6.7687 0.00000 0.00000 -8.2663                                               F
OEGGEN51 Eggenburg    0 0        20.8866 0.00000 -2.8972 0.00000 0.00000 -3.8317                                               F
OEGGLF51 Egglfing     0 0        0.00000 0.00000 -64.350 0.00000 0.00000 -84.000                                               F
OEIBES51 Eibesbrunn   0 0        17.2079 0.00000 -63.556 0.00000 0.00000 -148.97                                               F
OEIBES52 Eibesbrunn   0 0        0.00000 0.00000 0.00000 0.00000
OEICH 51 Eichet       0 0        48.5228 0.00000 -14.909 0.00000 0.00000 -16.442                                               F
OEICH 52 Eichet       0 0        0.00000 0.00000 0.00000 0.00000
OEISEN51 Eisenstadt   0 2 113.30 24.6127 0.00000 -17.599 12.6438 0.00000 -17.599 100.000 -100.00                               F
OENNSI51 EnnsIndustri 0 0        17.1307 0.00000 -0.2789 0.00000 0.00000 -0.3288                                               F
OENZF 51 Enzesfeld    0 0        0.00000 0.00000 0.00000 0.00000
OERING51 Ering        0 0        0.00000 0.00000 -55.000 0.00000 0.00000 -75.000                                               F
OERLAU51 Erlauf       0 0        45.6395 0.00000 -20.998 0.00000 0.00000 -27.613                                               F
OERNST11 Ernsthofen   0 0        0.00000 0.00000 0.00000 -9.0028                 0.00000 -9.0028                               F
OERNST21 Ernsthofen   0 0        0.00000 165.711 0.00000 0.00000                 165.711 0.00000                               F
OERNST22 Ernsthofen   0 0        0.00000 0.00000 0.00000 0.00000
OERNST23 Ernsthofen   0 0        0.00000 0.00000 0.00000 0.00000
OERNST2X EH-SF6       0 0        0.00000 0.00000 0.00000 0.00000
OERNST2Y EH-SF6       0 2 238.61 0.00000 0.00000 0.00000 51.5123                 300.000 -300.00                               F
OERNST51 Ernsthofen   0 0        0.00000 0.00000 0.00000 0.00000
OERNST52 Ernsthofen   0 0        0.00000 0.00000 0.00000 0.00000
OERNST53 Ernsthofen   0 0        23.9957 0.00000 -35.019 0.00000 0.00000 -41.433                                               F
OESSL 51 Essling      0 0        0.00000 0.00000 0.00000 0.00000
OESSL 52 Essling      0 0        12.2545 0.00000 -60.700 0.00000 0.00000 -65.128                                               F
OESSL 59 Essling      0 0        0.00000 0.00000 0.00000 0.00000
OETZER11 Etzersdorf   0 0        0.00000 0.00000 0.00000 -67.244                 0.00000 -67.244                               F
OFEIST21 Feistritz    0 0        0.00000 0.00608 -41.490 0.00000 0.00000 -88.000 0.00608 0.00000                               F
OFELDB51 Feldbach     0 0        73.9360 0.00000 -65.787 0.00000 0.00000 -65.787                                               F
OFELDB52 Feldbach     0 0        0.00000 0.00000 0.00000 0.00000
OFELDK51 Feldkirch    0 0        64.6850 0.00000 -10.864 0.00000 0.00000 -54.578                                               F
OFLAG 51 Flachgau     0 0        23.5231 0.00000 -4.0778 0.00000 0.00000 -4.9215                                               F
OFLAG 52 Flachgau     0 0        0.00000 0.00000 0.00000 0.00000
OFRANK51 Frankenmarkt 0 0        12.5782 0.00000 -7.0655 0.00000 0.00000 -8.7846                                               F
OFRANZ51 Franzosenhau 0 0        2.54210 0.00000 -1.6664 0.00000 0.00000 -1.9128                                               F
OFRAST51 Frastanz     0 0        0.00000 0.00000 0.00000 0.00000
OFREIS51 Freistadt    0 0        17.1307 0.00000 -26.730 0.00000 0.00000 -69.125                                               F
OFRIEN51 Friensdorf   0 0        17.1307 0.00000 -12.459 0.00000 0.00000 -15.343                                               F
OFRIEN52 Friensdorf   0 0        0.00000 0.00000 0.00000 0.00000
OFRIES51 Friesach     0 0        0.00000 0.00000 -9.7880 0.00000 0.00000 -12.000                                               F
OFRIES52 Friesach     0 0        0.00000 0.00000 0.00000 0.00000
OFROH 51 Frohnleiten  0 0        0.00000 0.00000 -23.123 0.00000 0.00000 -27.200                                               F
OFROH 52 Frohnleiten  0 0        0.00000 0.00000 0.00000 0.00000
OGAENS51 Gaenserndorf 0 0        35.6439 0.00000 -26.354 0.00000 0.00000 -44.139                                               F
OGAENS52 Gaenserndorf 0 0        0.00000 0.00000 0.00000 0.00000
OGAILI51 Gailitz      0 0        10.3091 0.00000 0.00000 0.00000
OGAILI52 Gailitz      0 0        0.00000 0.00000 0.00000 0.00000
OGARST51 Garsten      0 0        0.00000 0.00000 -5.0300 0.00000 0.00000 -34.200                                               F
OGASTE51 Gasteinertal 0 0        5.91156 0.00000 -48.075 0.00000 31.5000 -131.87                                               F
OGAWEI51 Gaweinstal   0 0        25.8900 0.00000 -66.683 0.00000 0.00000 -259.73                                               F
OGERAS51 Gerasdorf    0 0        0.00000 0.00000 0.00000 0.00000
OGERAS52 Gerasdorf    0 0        0.00000 0.00000 0.00000 0.00000
OGERLO11 Gerlos       0 0        0.00000 0.00000 0.00000 0.00000 0.00000 -135.00                                               F
OGERST51 Gerstl       0 0        19.3124 0.00000 -21.507 0.00000 0.00000 -26.628                                               F
OGLEIS51 Gleisdorf    0 0        59.6132 0.00000 -36.381 0.00000 0.00000 -36.381                                               F
OGLEIS52 Gleisdorf    0 0        0.00000 0.00000 0.00000 0.00000
OGMUND51 Gmunden      0 0        26.8955 0.00000 -3.8880 0.00000 0.00000 -28.517                                               F
OGOEM 51 Goeming      0 0        0.00000 0.00000 0.00000 0.00000
OGOEM 52 Goeming      0 0        11.0232 0.00000 -6.4160 0.00000 0.00000 -7.7435                                               F
OGOLL 51 Golling      0 0        0.00000 0.00000 0.00000 0.00000
OGOLL 52 Golling      0 0        8.52331 0.00000 -10.254 0.00000 0.00000 -13.259                                               F
OGRAMB51 Grambach     0 0        161.200 0.00000 -8.5283 0.00000 0.00000 -8.5283                                               F
OGRAMB52 Grambach     0 0        0.00000 0.00000 0.00000 0.00000
OGRAZN51 Graz_Nord    0 0        67.6004 0.00000 -17.408 0.00000 0.00000 -20.458                                               F
OGRAZN52 Graz_Nord    0 0        0.00000 0.00000 0.00000 0.00000
OGRAZS51 Graz_Sued    0 0        0.00000 0.00000 -26.264 0.00000 0.00000 -41.764                                               F
OGRAZS52 Graz_Sued    0 0        86.4183 0.00000 0.00000 0.00000
OGREST51 Gresten      0 0        20.4824 0.00000 -18.408 0.00000 0.00000 -28.338                                               F
OGREST52 Gresten      0 0        0.00000 0.00000 0.00000 0.00000
OGREUT21 Greuth       0 0        0.00000 0.00000 0.00000 0.00000
OGREUT41 Greuth       0 0        0.00000 0.00000 0.00000 0.00000
OGREUT42 Greuth       0 0        0.00000 0.00000 0.00000 0.00000
OGRFST21 Greifenstein 0 0        0.00000 11.9721 -152.55 0.00000 0.00000 -297.00 11.9721 0.00000                               F
OGRIK 51 Grieskirchen 0 0        19.3543 0.00000 -22.221 0.00000 0.00000 -26.590                                               F
OGROSS51 Grossraming  0 0        0.00000 0.00000 -5.2800 0.00000 0.00000 -35.000                                               F
OGROSS52 Grossraming  0 0        0.00000 0.00000 -14.100 0.00000 0.00000 -83.400                                               F
OGUNDE51 Gundertshaus 0 0        2.33312 0.00000 -5.7760 0.00000 0.00000 -6.9599                                               F
OHADER51 Hadersdorf   0 0        3.18687 0.00000 -6.3608 0.00000 0.00000 -18.308                                               F
OHAEUS21 Haeusling    0 0        0.00000 0.00000 -6.1845 0.00000 360.000 -360.00                                               F
OHARTB51 Hartberg     0 0        61.6614 0.00000 -50.218 0.00000 0.00000 -65.413                                               F
OHAUSR21 Hausruck     0 0        0.00000 35.6842 0.00000 0.00000                 35.6842 0.00000                               F
OHAUSR22 Hausruck     0 0        0.00000 0.00000 0.00000 0.00000
OHAUSR51 Hausruck     0 0        5.43824 0.00000 -2.7224 0.00000 0.00000 -30.366                                               F
OHAUSR52 Hausruck     0 0        0.00000 0.00000 0.00000 0.00000
OHAUSR53 Hausruck     0 0        0.00000 0.00000 0.00000 0.00000
OHAUSR59 Hausruck     0 0        0.00000 0.00000 0.00000 0.00000
OHESSE21 Hessenberg   0 0        0.00000 0.00000 0.00000 -12.519                 0.00000 -12.519                               F
OHESSE22 Hessenberg   0 0        0.00000 0.00000 0.00000 0.00000
OHESSE51 Hessenberg   0 0        42.3233 0.00000 -27.739 0.00000 0.00000 -27.739                                               F
OHESSE52 Hessenberg   0 0        0.00000 0.00000 0.00000 0.00000
OHIEF 51 Hieflau      0 0        8.86888 0.00000 -66.846 0.00000 7.64000 -107.89                                               F
OHIEF 52 Hieflau      0 0        0.00000 0.00000 0.00000 0.00000
OHIMU 51 Hintermuhr   0 0        0.00000 0.00000 0.00000 0.00000 70.0000 -111.90                                               F
OHOEFL51 Hoeflein     0 0        0.00000 0.00000 -42.706 0.00000 0.00000 -126.55                                               F
OHOERS51 Hoersching   0 0        0.00000 0.00000 0.00000 0.00000
OHOERS52 Hoersching   0 0        0.00000 0.00000 0.00000 0.00000
OHOF  51 Hof          0 0        6.02335 0.00000 -1.0641 0.00000 0.00000 -1.4946                                               F
OHOHEM51 Hohenems     0 0        46.4368 0.00000 -5.9799 0.00000 0.00000 -11.253                                               F
OHOHEW51 HoheWand     0 0        108.336 0.00000 -15.353 0.00000 0.00000 -15.353                                               F
OHOLLA51 Hollabrunn   0 0        23.4263 0.00000 -6.6782 0.00000 0.00000 -11.568                                               F
OHOLLA52 Hollabrunn   0 0        0.00000 0.00000 0.00000 0.00000
OHORN 51 Horn         0 0        17.6186 0.00000 -17.642 0.00000 0.00000 -18.578                                               F
OHORN 52 Horn         0 0        0.00000 0.00000 0.00000 0.00000
OHULI 51 HuetteSued   0 0        276.494 0.00000 -220.35 0.00000 0.00000 -365.40                                               F
OIMST 51 Imst         0 0        57.3877 0.00000 -66.640 0.00000 0.00000 -93.046                                               F
OIMST 52 Imst         0 0        0.00000 0.00000 -58.400 0.00000 0.00000 -68.000                                               F
OINNSB51 Innsbruck    0 0        75.2462 0.00000 -26.000 0.00000 0.00000 -28.000                                               F
OINNSB52 Innsbruck    0 0        0.00000 0.00000 0.00000 0.00000
OJENBA51 Jenbach      0 0        31.8226 0.00000 -15.218 0.00000 0.00000 -51.774                                               F
OJENBA52 Jenbach      0 0        0.00000 0.00000 -0.4000 0.00000 0.00000 -66.000                                               F
OJOCHE21 Jochenstein  0 0        0.00000 3.59366 -82.305 0.00000 0.00000 -132.00 3.59366 0.00000                               F
OJOCHE51 Jochenstein  0 0        0.00000 0.00000 0.00000 0.00000
OJOCHE59 Jochenstein  0 0        0.00000 0.00000 0.00000 0.00000
OKAGRA51 Kagran       0 0        0.00000 0.00000 0.00000 0.00000
OKAINA11 Kainachtal   0 2 414.66 0.00000 143.670 0.00000 -114.95                 400.000 -400.00                               F
OKAINA12 Kainachtal   0 0        0.00000 32.0209 0.00000 0.00000                 32.0209 0.00000                               F
OKAINA51 Kainachtal   0 0        29.5730 0.00000 -28.804 0.00000 0.00000 -32.862                                               F
OKAINA52 Kainachtal   0 0        0.00000 0.00000 0.00000 0.00000
OKAISE51 KaiserEbersd 0 0        138.465 0.00000 -47.160 0.00000 0.00000 -87.000                                               F
OKAISE52 KaiserEbersd 0 0        0.00000 0.00000 -47.160 0.00000 0.00000 -87.000                                               F
OKAMER51 Kamering     0 0        43.7990 0.00000 -38.142 0.00000 0.00000 -60.368                                               F
OKAMER52 Kamering     0 0        0.00000 0.00000 0.00000 0.00000
OKAPFB51 Kapfenberg   0 0        23.0899 0.00000 -6.8285 0.00000 0.00000 -7.4970                                               F
OKAPRU11 Kaprun_Haupt 0 0        0.00000 0.00000 -2.9204 -5.5407 0.00000 -170.00 0.00000 -5.5407                               F
OKAPRU12 Kaprun_Haupt 0 0        0.00000 0.00000 0.00000 0.00000 0.00000 -170.00                                               F
OKAPRU51 Kaprun_Haupt 0 0        0.00000 0.00000 -3.8138 0.00000 130.000 -222.00                                               F
OKAPRU52 Kaprun_Haupt 0 0        0.00000 0.00000 0.00000 0.00000
OKATZB51 Katzbach     0 0        6.24695 0.00000 -4.1198 0.00000 0.00000 -4.7850                                               F
OKENDL11 Kendlerstras 0 0        0.00000 0.00000 0.00000 0.00000
OKENDL12 Kendlerstras 0 0        0.00000 0.00000 0.00000 0.00000
OKENDL51 Kendlerstras 0 0        0.00000 0.00000 0.00000 0.00000
OKENDL52 Kendlerstras 0 0        0.00000 0.00000 0.00000 0.00000
OKINDB51 Kindberg     0 0        3.48446 0.00000 -2.0307 0.00000 0.00000 -2.2295                                               F
OKLAGE51 Klagenfurt   0 0        102.077 0.00000 -51.219 0.00000 0.00000 -104.07                                               F
OKLAGE52 Klagenfurt   0 0        0.00000 0.00000 0.00000 0.00000
OKLAUS21 Klaus        0 0        0.00000 0.00000 0.00000 0.00000
OKLAUS22 Klaus        0 0        13.7437 0.00000 -7.7844 -3.5156 0.00000 -27.490 0.00000 -3.5156                               F
OKLEDE21 Kledering    0 0        0.00000 0.00000 0.00000 -1.8357                 0.00000 -1.8357                               F
OKLEIN51 Kleinmuenche 0 0        7.57213 0.00000 -0.2207 0.00000 0.00000 -0.2498                                               F
OKLEIN52 Kleinmuenche 0 0        0.00000 0.00000 0.00000 0.00000
OKORNE51 Korneuburg   0 0        0.00000 0.00000 0.00000 0.00000 0.00000 -150.00                                               F
OKORNE52 Korneuburg   0 0        0.00000 0.00000 0.00000 0.00000
OKREMM51 Kremsmuenste 0 0        0.00000 0.00000 0.00000 0.00000
OKREMM52 Kremsmuenste 0 0        0.00000 0.00000 0.00000 0.00000
OKRONS11 Kronstorf    0 0        0.00000 0.00000 0.00000 0.00000
OKROW 51 Kronstorf_We 0 0        0.00000 0.00000 0.00000 0.00000
OKUFST51 Kufstein     0 0        24.8303 0.00000 -35.233 0.00000 0.00000 -53.188                                               F
OKUFST52 Kufstein     0 0        0.00000 0.00000 0.00000 0.00000
OKWDUR11 KW Duernrohr 0 0        0.00000 0.00000 0.00000 0.00000 0.00000 -332.00                                               F
OLAA  51 LaaThaya     0 0        10.9558 0.00000 -66.516 0.00000 0.00000 -208.97                                               F
OLAAKI51 Laakirchen   0 0        81.8582 0.00000 -51.994 0.00000 0.00000 -63.511                                               F
OLANDS51 Landskron    0 0        30.5141 0.00000 -29.871 0.00000 0.00000 -37.735                                               F
OLANDS52 Landskron    0 0        0.00000 0.00000 0.00000 0.00000
OLASDO51 Lassendorf   0 0        26.5767 0.00000 -17.000 0.00000 5.00000 -68.000                                               F
OLASSE51 Lassee       0 0        6.18054 0.00000 -5.4444 0.00000 0.00000 -6.1422                                               F
OLAUF 51 Laufnitzdorf 0 0        0.00000 0.00000 -46.643 0.00000 0.00000 -46.643                                               F
OLAUF 52 Laufnitzdorf 0 0        0.00000 0.00000 0.00000 0.00000
OLEIBN51 Leibnitz     0 0        0.00000 0.00000 -50.662 0.00000 0.00000 -74.450                                               F
OLEIBN52 Leibnitz     0 0        0.00000 0.00000 0.00000 0.00000
OLENGA51 Lengau       0 0        1.10949 0.00000 -1.6015 0.00000 0.00000 -1.8877                                               F
OLENZI51 Lenzing      0 0        95.8340 0.00000 -79.505 0.00000 0.00000 -79.505                                               F
OLEOND51 Leonding     0 0        6.55113 0.00000 -0.7311 0.00000 0.00000 -0.8278                                               F
OLEOPO51 Leopoldau    0 0        145.999 0.00000 0.00000 0.00000 0.00000 -147.00                                               F
OLEOPO52 Leopoldau    0 0        0.00000 0.00000 0.00000 0.00000
OLIENN11 Lienz        0 0        0.00000 0.00000 0.00000 0.00000
OLIENN21 Lienz        0 0        0.00000 1.19780 0.00000 0.00000                 1.19780 0.00000                               F
OLIENN22 Lienz        0 0        0.00000 0.00000 0.00000 0.00000
OLIENN51 Lienz        0 0        0.00000 0.00000 0.00000 0.00000
OLIENN52 Lienz        0 0        30.2158 0.00000 -50.383 0.00000 0.00000 -140.62                                               F
OLIESE51 Lieserhofen  0 0        38.7634 0.00000 -6.4173 0.00000 0.00000 -8.6940                                               F
OLIESE52 Lieserhofen  0 0        0.00000 0.00000 0.00000 0.00000
OLIESI51 Liesing      0 0        71.1108 0.00000 0.00000 0.00000
OLIEZ 51 Liezen       0 0        65.6835 0.00000 -129.14 0.00000 0.00000 -188.34                                               F
OLIMBG11 Limberg_II   0 0        0.00000 0.00000 -8.2460 -2.6794 480.000 -480.00 0.00000 -2.6794                               F
OLINZC51 LinzCity     0 0        18.3886 0.00000 0.00000 0.00000
OLINZI51 LinzIndustri 0 0        9.26571 0.00000 -0.3549 0.00000 0.00000 -0.4018                                               F
OLINZM51 LinzMitte    0 0        25.7420 0.00000 -1.5176 0.00000 0.00000 -214.32                                               F
OLINZM52 LinzMitte    0 0        0.00000 0.00000 0.00000 0.00000
OLINZN51 LinzNord     0 0        18.3886 0.00000 -4.7291 0.00000 0.00000 -5.9086                                               F
OLINZN52 LinzNord     0 0        0.00000 0.00000 0.00000 0.00000
OLINZO51 LinzOst      0 0        55.0197 0.00000 -0.2207 0.00000 0.00000 -0.2498                                               F
OLINZS51 LinzSued     0 0        9.08694 0.00000 -6.4744 0.00000 0.00000 -165.46                                               F
OLINZZ51 LinzZentrum  0 0        24.5851 0.00000 -4.1930 0.00000 0.00000 -4.9920                                               F
OLINZZ52 LinzZentrum  0 0        0.00000 0.00000 0.00000 0.00000
OLOOSD51 Loosdorf     0 0        14.6041 0.00000 -11.739 0.00000 0.00000 -20.053                                               F
OLOSEN51 Losenstein   0 0        0.00000 0.00000 -7.5500 0.00000 0.00000 -40.000                                               F
OLUGA 51 Lungau       0 0        17.3358 0.00000 -26.129 0.00000 0.00000 -44.634                                               F
OLUGA 52 Lungau       0 0        0.00000 0.00000 0.00000 0.00000
OMALTA21 MaltaHauptst 0 2 236.84 0.00000 0.00000 -107.68 -4.9783 145.000 -547.50 500.000 -500.00                               F
OMALTA22 MaltaHauptst 0 0        0.00000 120.506 -3.1352 0.00000 145.000 -182.50 120.506 0.00000                               F
OMALTA51 MaltaHauptst 0 0        49.9136 0.00000 -2.9204 0.00000 116.000 -120.00                                               F
OMALTA52 MaltaHauptst 0 0        0.00000 0.00000 0.00000 0.00000
OMARCH51 Marchtrenk   0 0        10.1654 0.00000 -34.972 0.00000 0.00000 -69.105                                               F
OMATTE51 Mattersburg  0 0        12.2479 24.8083 -23.602 0.00000 0.00000 -57.136 24.8083 0.00000                               F
OMATTI51 Mattighofen  0 0        16.8234 29.0000 -12.288 0.00000 0.00000 -33.137 29.0000 0.00000                               F
OMAU  51 MaltaUnterst 0 0        0.00000 0.00000 -14.794 0.00000 0.00000 -42.900                                               F
OMAUTH51 Mauthausen   0 0        17.1307 0.00000 -1.4049 0.00000 0.00000 -4.1785                                               F
OMAYRH21 Mayrhofen    0 2 237.47 0.00000 13.4527 0.00000 39.5263                 300.000 -300.00                               F
OMAYRH22 Mayrhofen    0 0        0.00000 0.00000 -85.873 -8.7688 0.00000 -367.50 0.00000 -8.7688                               F
OMELLA11 Mellach      0 0        0.00000 12.6072 -200.00 0.00000 0.00000 -410.00 12.6072 0.00000                               F
OMITTD51 Mitterdorf   0 0        23.0899 0.00000 -14.478 0.00000 0.00000 -20.323                                               F
OMITTD52 Mitterdorf   0 0        0.00000 0.00000 0.00000 0.00000
OMOOSB51 Moosbrunn    0 0        10.7000 0.00000 0.00000 0.00000
OMUEHL51 Muehlrading  0 0        0.00000 0.00000 -4.5000 0.00000 0.00000 -25.600                                               F
OMUERZ51 Muerzzuschla 0 0        17.0750 0.00000 -24.431 0.00000 0.00000 -82.529                                               F
OMUERZ52 Muerzzuschla 0 0        0.00000 0.00000 0.00000 0.00000
ONENZI51 Nenzing      0 0        0.00000 0.00000 0.00000 0.00000
ONEUSI21 NeusiedlSee  0 0        0.00000 0.00000 0.00000 -9.9743                 0.00000 -9.9743                               F
ONEUSI51 NeusiedlSee  0 0        21.4477 14.5000 -64.619 0.00000 0.00000 -138.44 14.5000 0.00000                               F
ONEUSI52 NeusiedlSee  0 0        0.00000 14.5000 -43.888 0.00000 0.00000 -120.73 14.5000 0.00000                               F
OOBAL 51 Oberalm      0 0        13.5232 0.00000 -37.356 0.00000 0.00000 -97.713                                               F
OOBAL 52 Oberalm      0 0        0.00000 0.00000 0.00000 0.00000
OOBERA52 Oberaudorf   0 0        0.00000 0.00000 0.00000 0.00000
OOBERD51 Oberdrauburg 0 0        8.91411 0.00000 -10.284 0.00000 0.00000 -15.418                                               F
OOBERS11 Obersielach  0 0        0.00000 0.00000 0.00000 -9.0665                 0.00000 -9.0665                               F
OOBERS12 Obersielach  0 0        0.00000 0.00000 0.00000 0.00000
OOBERS21 Obersielach  0 0        0.00000 114.090 0.00000 0.00000                 114.090 0.00000                               F
OOBERS51 Obersielach  0 0        17.2864 0.00000 -8.4598 0.00000 0.00000 -11.208                                               F
OOBERS52 Obersielach  0 0        0.00000 0.00000 0.00000 0.00000
OOETZ 51 Oetztal      0 0        47.3595 0.00000 -32.669 0.00000 0.00000 -50.898                                               F
OOETZ 52 Oetztal      0 0        0.00000 0.00000 0.00000 0.00000
OOHLSD51 Ohlsdorf     0 0        0.00000 0.00000 -0.7624 0.00000 0.00000 -1.1254                                               F
OOSTST11 Oststeiermar 0 0        0.00000 13.0952 0.00000 0.00000                 13.0952 0.00000                               F
OOSTST51 Oststeiermar 0 0        0.00000 0.00000 0.00000 0.00000
OOSTST52 Oststeiermar 0 0        0.00000 0.00000 0.00000 0.00000
OOTH  51 Ottensheim   0 0        0.00000 0.00000 -107.96 0.00000 0.00000 -180.00                                               F
OOTH  52 Ottensheim   0 0        0.00000 0.00000 0.00000 0.00000
OOTTEN51 Ottenstein   0 0        12.4505 0.00000 -1.9307 0.00000 0.00000 -57.285                                               F
OOTTEN52 Ottenstein   0 0        18.9672 0.00000 0.00000 0.00000 18.4000 0.00000                                               F
OPARTE51 Partenstein  0 0        7.83277 0.00000 -8.7066 0.00000 0.00000 -48.018                                               F
OPASSA51 Passau       0 0        0.00000 0.00000 -34.252 0.00000 0.00000 -44.400                                               F
OPEIGA51 Peigarten    0 0        0.00000 0.00000 0.00000 0.00000
OPERNH51 Pernhofen    0 0        54.9049 0.00000 0.00000 0.00000
OPERNH52 Pernhofen    0 0        0.00000 0.00000 0.00000 0.00000
OPETER11 StPeter      0 0        0.00000 0.00000 0.00000 0.00000
OPETER12 StPeter      0 0        0.00000 0.00000 0.00000 0.00000
OPETER21 StPeter      0 2 238.43 0.00000 30.5156 0.00000 -43.839                 350.000 -350.00                               F
OPETER22 StPeter      0 0        0.00000 31.6623 0.00000 0.00000                 31.6623 0.00000                               F
OPETER23 StPeter      0 0        0.00000 31.6623 0.00000 0.00000                 31.6623 0.00000                               F
OPETER51 StPeter      0 0        10.1043 0.00000 0.00000 0.00000
OPETER52 StPeter      0 0        0.00000 0.00000 0.00000 0.00000
OPETRO51 Petronell    0 0        5.10726 0.00000 0.00000 0.00000
OPETRO52 Petronell    0 0        0.00000 0.00000 0.00000 0.00000
OPFAND51 Pfandl       0 0        6.82744 0.00000 -0.5687 0.00000 0.00000 -0.8285                                               F
OPICHL51 Pichling     0 0        0.00000 0.00000 -1.1325 0.00000 0.00000 -1.2822                                               F
OPICHL52 Pichling     0 0        0.00000 0.00000 0.00000 0.00000
OPINZ 51 Pinzgau      0 0        64.5376 0.00000 -86.548 0.00000 0.00000 -102.65                                               F
OPINZ 52 Pinzgau      0 0        0.00000 0.00000 0.00000 0.00000
OPOCKI51 Pocking      0 0        45.2679 0.00000 -106.34 0.00000 0.00000 -120.40                                               F
OPODO 51 Pottendorf   0 0        0.00000 0.00000 0.00000 0.00000
OPONG 51 Pongau       0 0        11.3500 0.00000 -42.213 0.00000 0.00000 -58.992                                               F
OPONG 52 Pongau       0 0        11.3500 0.00000 -78.826 0.00000 0.00000 -82.700                                               F
OPOTT 51 Pottenstein  0 0        0.00000 0.00000 0.00000 0.00000
OPOTT 52 Pottenstein  0 0        0.00000 0.00000 0.00000 0.00000
OPOTTE11 Pottenbrunn  0 0        0.00000 0.00000 0.00000 0.00000
OPOTTE51 Pottenbrunn  0 0        0.00000 0.00000 0.00000 0.00000
OPOTTE52 Pottenbrunn  0 0        56.0871 0.00000 -30.144 0.00000 0.00000 -50.437                                               F
OPOTTE59 Pottenbrunn  0 0        0.00000 0.00000 0.00000 0.00000
OPROTT51 Prottes      0 0        0.00000 0.00000 -15.788 0.00000 0.00000 -43.641                                               F
OPUCHB51 Puchberg     0 0        14.2039 0.00000 -5.1022 0.00000 0.00000 -6.5060                                               F
OPUCHB52 Puchberg     0 0        0.00000 0.00000 0.00000 0.00000
OPYHRN21 Pyhrn        0 0        2.69484 0.00000 -1.5061 -5.0470 0.00000 -3.2100 0.00000 -5.0470                               F
ORAAB 51 Raab         0 0        0.00000 0.00000 0.00000 0.00000
ORADEN51 Radenthein   0 0        19.0821 0.00000 -4.1217 0.00000 0.00000 -6.9090                                               F
ORADEN52 Radenthein   0 0        0.00000 0.00000 0.00000 0.00000
ORANNA51 Ranna        0 0        10.1788 0.00000 -7.3661 0.00000 16.5000 -30.714                                               F
ORANNA52 Ranna        0 0        0.00000 0.00000 0.00000 0.00000
ORANSH51 Ranshofen    0 0        34.2307 0.00000 0.00000 0.00000
ORAUZ 51 Rauz         0 0        0.00000 0.00000 0.00000 0.00000
OREGAU51 Regau        0 0        5.28620 0.00000 -1.4572 0.00000 0.00000 -2.2042                                               F
OREISS21 KW Reisseck2 0 0        0.00000 26.5306 0.00000 0.00000 430.000 -430.00 26.5306 0.00000                               F
OREISS51 ReisseckKreu 0 0        0.00000 0.00000 -8.0000 0.00000 20.4000 -142.40                                               F
OREISS52 ReisseckKreu 0 0        0.00000 0.00000 0.00000 0.00000
OREITD51 Reitdorf     0 0        20.7562 0.00000 0.00000 0.00000
ORIED 51 Ried         0 0        26.9681 0.00000 -20.932 0.00000 0.00000 -24.821                                               F
ORIED 52 Ried         0 0        0.00000 0.00000 0.00000 0.00000
ORIEDB51 Riedersbach  0 0        5.08027 0.00000 -4.1102 0.00000 0.00000 -4.8445                                               F
ORIEDE51 Rieden       0 0        131.127 0.00000 -21.540 0.00000 0.00000 -48.180                                               F
OROHRB51 Rohrbach     0 0        18.9851 0.00000 -12.917 0.00000 0.00000 -19.953                                               F
OROSEG21 Rosegg       0 0        0.00000 5.19779 -39.262 0.00000 0.00000 -80.600 5.19779 0.00000                               F
OROSEN51 Rosenau      0 0        0.00000 0.00000 -6.0800 0.00000 0.00000 -33.000                                               F
OROSSB51 Rossbach     0 0        11.0786 0.00000 -12.151 0.00000 0.00000 -16.230                                               F
OROSSH21 Rosshag      0 0        0.00000 0.00000 -1.9756 0.00000 130.000 -115.00                                               F
OROSSH22 Rosshag      0 0        0.00000 0.00000 -1.9756 0.00000 130.000 -115.00                                               F
OSALZA21 Salzach      0 0        0.00000 0.00000 0.00000 -22.448                 0.00000 -22.448                               F
OSALZA22 Salzach      0 0        0.00000 0.00000 0.00000 0.00000
OSALZA51 Salzach      0 0        108.521 0.00000 -31.223 0.00000 0.00000 -126.66                                               F
OSALZA52 Salzach      0 0        0.00000 0.00000 0.00000 0.00000
OSALZB21 Salzburg     0 0        0.00000 0.00000 0.00000 0.00000
OSALZB22 Salzburg     0 0        0.00000 0.00000 0.00000 0.00000
OSARA 11 Sarasdorf    0 0        0.00000 11.7423 0.00000 -13.986                 11.7423 -13.986                               F
OSARA 12 Sarasdorf    0 0        0.00000 0.00000 0.00000 0.00000
OSARA 51 Sarasdorf    0 0        0.00000 0.00000 -23.670 0.00000 0.00000 -69.594                                               F
OSARA 52 Sarasdorf    0 0        0.00000 0.00000 0.00000 0.00000
OSATTL21 Sattledt     0 0        4.31174 0.00000 0.00000 -1.9079                 0.00000 -1.9079                               F
OSCHAE21 Schaerding   0 0        0.00000 0.00000 -34.840 0.00000 0.00000 -96.000                                               F
OSCHAE22 Schaerding   0 0        0.00000 2.33024 -34.840 0.00000 0.00000 -96.000 2.33024 0.00000                               F
OSCHAR51 Scharndorf   0 0        0.00000 0.00000 -59.555 0.00000 0.00000 -175.10                                               F
OSCHME51 Schmelz      0 0        150.129 0.00000 0.00000 0.00000
OSCHOE51 Schoenkirche 0 0        0.00000 0.00000 0.00000 0.00000
OSCHWA11 Schwarzenbac 0 0        0.00000 0.00000 -14.192 -6.3359 -14.192 -14.192 0.00000 -6.3359                               F
OSIMME11 Simmering    0 0        0.00000 0.00000 0.00000 0.00000 0.00000 -894.00                                               F
OSIMME12 Simmering    0 0        0.00000 0.00000 0.00000 0.00000 0.00000 -274.00                                               F
OSIMME51 Simmering    0 0        0.00000 0.00000 0.00000 0.00000 0.00000 -85.000                                               F
OSIMME52 Simmering    0 0        0.00000 0.00000 0.00000 0.00000
OSIMME53 Simmering    0 0        0.00000 0.00000 0.00000 0.00000
OSIMME55 Simmering    0 0        0.00000 0.00000 -19.807 0.00000 0.00000 -101.50                                               F
OSPANN51 Spannberg    0 0        0.00000 0.00000 0.00000 0.00000
OSPANN52 Spannberg    0 0        0.00000 0.00000 -43.965 0.00000 0.00000 -121.52                                               F
OSPITT51 Spittal      0 0        14.0696 0.00000 -5.3994 0.00000 0.00000 -6.8583                                               F
OSTADL51 Stadlau      0 0        145.999 0.00000 0.00000 0.00000
OSTADL52 Stadlau      0 0        0.00000 0.00000 0.00000 0.00000
OSTAND51 StAndrae     0 0        14.0828 0.00000 -4.1617 0.00000 0.00000 -7.8228                                               F
OSTAND52 StAndrae     0 0        0.00000 0.00000 0.00000 0.00000
OSTANI51 Staning      0 0        0.00000 0.00000 -8.6310 0.00000 0.00000 -45.000                                               F
OSTEEG51 Steeg        0 0        8.40448 0.00000 -1.3819 0.00000 0.00000 -2.5708                                               F
OSTEIK51 Steinkogl    0 0        20.3706 0.00000 -1.5507 0.00000 0.00000 -9.6214                                               F
OSTEIN51 Steinfeld    0 0        12.0504 0.00000 -12.746 0.00000 0.00000 -18.449                                               F
OSTEYF51 SteyrFischhu 0 0        37.4979 0.00000 -19.101 0.00000 0.00000 -28.776                                               F
OSTEYM51 Steyrermuehl 0 0        2.99481 0.00000 -1.9176 0.00000 0.00000 -50.572                                               F
OSTEYM52 Steyrermuehl 0 0        0.00000 0.00000 -8.0000 0.00000 0.00000 -18.000                                               F
OSTEYM53 Steyrermuehl 0 0        4.99136 0.00000 0.00000 0.00000 57.0000 0.00000                                               F
OSTEYN51 SteyrNord    0 0        48.3848 0.00000 0.00000 0.00000
OSTJAK51 StJakob      0 0        14.4587 0.00000 0.00000 0.00000
OSTJAK52 StJakob      0 0        0.00000 0.00000 0.00000 0.00000
OSTLEO51 StLeonhard   0 0        9.19605 0.00000 -5.3185 0.00000 0.00000 -9.4148                                               F
OSTMAR51 StMartin     0 0        12.0150 0.00000 -25.338 0.00000 0.00000 -53.248                                               F
OSTMIC51 StMichael    0 0        31.1592 0.00000 0.00000 0.00000 0.00000 -10.000                                               F
OSTMIC52 StMichael    0 0        0.00000 0.00000 0.00000 0.00000
OSTOCK51 Stockerau    0 0        16.0388 0.00000 -8.6654 0.00000 0.00000 -14.632                                               F
OSTOCK52 Stockerau    0 0        0.00000 0.00000 0.00000 0.00000
OSTPAN51 StPantaleon  0 0        0.00000 0.00000 -14.150 0.00000 0.00000 -46.613                                               F
OSTRAT51 Stratzdorf   0 0        61.6294 0.00000 -9.9647 0.00000 0.00000 -380.28                                               F
OSTRAT52 Stratzdorf   0 0        0.00000 0.00000 0.00000 0.00000
OSTROB51 Strobl       0 0        4.91103 0.00000 -2.2144 0.00000 0.00000 -22.119                                               F
OSTVEI51 StVeit       0 0        75.7290 0.00000 -27.556 0.00000 0.00000 -35.580                                               F
OSTVEI52 StVeit       0 0        0.00000 0.00000 0.00000 0.00000
OSUEDB11 Suedburgenla 0 0        0.00000 27.8292 0.00000 0.00000                 27.8292 0.00000                               F
OSUEDB51 Suedburgenla 0 0        30.3050 0.00000 -31.034 0.00000 0.00000 -43.181                                               F
OSWA  51 Schwabeck    0 0        0.00000 0.00000 -48.260 0.00000 0.00000 -79.600                                               F
OSWA  52 Schwabeck    0 0        0.00000 0.00000 -20.126 0.00000 37.0000 -87.026                                               F
OSZA  51 Schwarzach   0 0        0.00000 0.00000 -78.228 0.00000 0.00000 -134.75                                               F
OSZA  52 Schwarzach   0 0        0.00000 0.00000 -51.028 0.00000 0.00000 -60.000                                               F
OTAUER11 Tauern       0 0        0.00000 0.00000 0.00000 -8.7620                 0.00000 -8.7620                               F
OTAUER12 Tauern       0 0        0.00000 0.00000 0.00000 0.00000
OTAUER21 Tauern       0 0        0.00000 0.00000 0.00000 0.00000
OTAUER22 Tauern       0 0        0.00000 108.323 0.00000 0.00000                 108.323 0.00000                               F
OTERNB51 Ternberg     0 0        0.00000 0.00000 -7.8200 0.00000 0.00000 -40.000                                               F
OTERNI21 Ternitz      0 0        0.00000 51.5233 0.00000 -12.252                 51.5233 -12.252                               F
OTERNI22 Ternitz      0 0        0.00000 0.00000 0.00000 0.00000
OTERNI51 Ternitz      0 0        62.5784 0.00000 -15.056 0.00000 0.00000 -20.220                                               F
OTERNI52 Ternitz      0 0        0.00000 0.00000 -13.765 0.00000 0.00000 -13.765                                               F
OTERNI53 Ternitz      0 0        0.00000 0.00000 0.00000 0.00000
OTHEIS11 Theiss       0 0        0.00000 0.00000 0.00000 0.00000
OTHEIS51 Theiss       0 0        0.00000 0.00000 0.00000 0.00000 0.00000 -140.00                                               F
OTHEIS52 Theiss       0 0        0.00000 0.00000 0.00000 0.00000 0.00000 -255.00                                               F
OTHEIS59 Theiss       0 0        0.00000 0.00000 0.00000 0.00000
OTILLY51 Tillysburg   0 0        12.5273 0.00000 -1.9013 0.00000 0.00000 -2.2353                                               F
OTIMEL51 Timelkam     0 0        23.2177 2.53823 -388.90 0.00000 0.00000 -436.03 2.53823 0.00000                               F
OTIMEL52 Timelkam     0 0        59.8963 2.53823 0.00000 0.00000                 2.53823 0.00000                               F
OTRAIS51 Traisen      0 0        0.00000 0.00000 0.00000 0.00000
OTRAIS52 Traisen      0 0        36.9371 0.00000 -13.091 0.00000 0.00000 -17.639                                               F
OTRAUN51 Traunfall    0 0        12.2029 0.00000 -5.9627 0.00000 0.00000 -27.513                                               F
OTRAUN52 Traunfall    0 0        0.00000 0.00000 0.00000 0.00000
OTRAUP51 TraunPucking 0 0        29.3311 0.00000 -17.838 0.00000 0.00000 -51.881                                               F
OTRKI 51 Traiskirchen 0 0        0.00000 0.00000 0.00000 0.00000
OTULLN51 TullnWest    0 0        47.2868 0.00000 -8.9137 0.00000 0.00000 -8.9137                                               F
OUNTER51 Unterach     0 0        8.69866 0.00000 -2.6940 0.00000 0.00000 -4.1211                                               F
OUNTER52 Unterach     0 0        0.00000 0.00000 0.00000 0.00000
OUSIEB51 Untersiebenb 0 0        0.00000 0.00000 0.00000 0.00000
OUSIEB52 Untersiebenb 0 0        0.00000 0.00000 -56.843 0.00000 0.00000 -157.12                                               F
OVILLA21 Villach      0 0        0.00000 23.0024 0.00000 0.00000                 23.0024 0.00000                               F
OVILLA22 Villach      0 0        0.00000 0.00000 0.00000 0.00000
OVILLA51 Villach      0 0        0.00000 0.00000 0.00000 0.00000
OVILLA52 Villach      0 0        0.00000 0.00000 0.00000 0.00000
OVOEKL51 Voecklabruck 0 0        12.7095 0.00000 -6.3332 0.00000 0.00000 -8.9305                                               F
OVORCH51 Vorchdorf    0 0        21.6071 0.00000 -28.275 0.00000 0.00000 -42.698                                               F
OVORDW51 Vorderwald   0 0        47.2322 0.00000 -8.3765 0.00000 0.00000 -81.870                                               F
OVORDW52 Vorderwald   0 0        0.00000 0.00000 0.00000 0.00000 0.00000 -36.000                                               F
OWAGEN51 Wagenham     0 0        4.62802 0.00000 -5.0084 0.00000 0.00000 -7.4632                                               F
OWAIDH51 WaidhofenTha 0 0        44.0605 0.00000 -26.375 0.00000 0.00000 -41.923                                               F
OWALLS21 Wallsee      0 0        0.00000 0.00000 -120.56 -1.6718 0.00000 -213.00 0.00000 -1.6718                               F
OWASEB51 Wasenbruck   0 0        46.2860 0.00000 -28.851 0.00000 0.00000 -32.350                                               F
OWASEB52 Wasenbruck   0 0        0.00000 0.00000 0.00000 0.00000
OWATTS51 Wattstrasse  0 0        17.7586 0.00000 -0.5813 0.00000 0.00000 -0.9070                                               F
OWEBLI51 Webling      0 0        39.8088 0.00000 -11.455 0.00000 0.00000 -11.455                                               F
OWEGSC51 Wegscheid    0 0        10.8146 0.00000 -0.1329 0.00000 0.00000 -0.1505                                               F
OWEGSC52 Wegscheid    0 0        0.00000 0.00000 0.00000 0.00000
OWEISS21 Weissenbach  0 0        0.00000 0.00000 0.00000 0.00000
OWEISS22 Weissenbach  0 0        0.00000 0.00000 0.00000 -30.039                 0.00000 -30.039                               F
OWEISS51 Weissenbach  0 0        0.00000 0.00000 0.00000 0.00000
OWEISS59 Weissenbach  0 0        0.00000 0.00000 0.00000 0.00000
OWELS 51 Wels         0 0        29.1479 0.00000 -6.3758 0.00000 0.00000 -57.640                                               F
OWERN 51 Neudorf_Wern 0 0        61.4321 0.00000 -334.52 0.00000 0.00000 -707.08                                               F
OWERN 52 Neudorf_Wern 0 0        0.00000 0.00000 0.00000 0.00000
OWESS 51 WienEssling  0 0        0.00000 0.00000 -25.705 0.00000 0.00000 -49.750                                               F
OWESTT11 Westtirol    0 2 405.56 0.00000 0.00000 0.00000 95.7001                 300.000 -300.00                               F
OWESTT12 Westtirol    0 0        0.00000 0.00000 0.00000 0.00000
OWESTT21 Westtirol    0 0        0.00000 44.6535 0.00000 -4.1397                 44.6535 -4.1397                               F
OWESTT22 Westtirol    0 0        0.00000 44.6535 0.00000 -4.1397                 44.6535 -4.1397                               F
OWESTT23 Westtirol    0 0        0.00000 0.00000 0.00000 0.00000
OWESTT51 Westtirol    0 0        0.00000 0.00000 0.00000 0.00000
OWESTT52 Westtirol    0 0        0.00000 0.00000 0.00000 0.00000
OWIEN 11 WienSuedOst  0 2 413.58 0.00000 0.00000 0.00000 -68.015                 200.000 -200.00                               F
OWIEN 12 WienSuedOst  0 0        0.00000 0.00000 0.00000 -8.2877                 0.00000 -8.2877                               F
OWIEN 21 WienSuedOst  0 0        0.00000 122.404 0.00000 0.00000                 122.404 0.00000                               F
OWIEN 22 WienSuedOst  0 0        0.00000 0.00000 0.00000 0.00000
OWIEN 51 WienSuedOst  0 0        49.1962 0.00000 0.00000 0.00000
OWIEN 52 WienSuedOst  0 0        0.00000 0.00000 0.00000 0.00000
OWIEN 53 WienSuedOst  0 0        0.00000 0.00000 0.00000 0.00000
OWIENA51 WienA        0 0        231.627 0.00000 0.00000 0.00000
OWIENB51 WienB        0 0        183.651 0.00000 -3.0564 0.00000 0.00000 -3.0564                                               F
OWIENO51 WienO        0 0        265.735 0.00000 0.00000 0.00000
OWILTE51 Wilten       0 0        12.4667 0.00000 0.00000 0.00000
OWILTE52 Wilten       0 0        0.00000 0.00000 0.00000 0.00000
OWINO 11 WienNord     0 0        0.00000 90.0099 0.00000 0.00000                 90.0099 0.00000                               F
OWINO 12 WienNord     0 0        0.00000 0.00000 0.00000 0.00000
OWINO 51 WienNord     0 0        0.00000 0.00000 -12.931 0.00000 0.00000 -21.800                                               F
OWINO 52 WienNord     0 0        0.00000 0.00000 0.00000 0.00000
OWINO 53 WienNord     0 0        0.00000 0.00000 0.00000 0.00000
OWISU 11 WienSued     0 0        0.00000 178.605 0.00000 0.00000                 178.605 0.00000                               F
OWISU 12 WienSued     0 0        0.00000 0.00000 0.00000 -27.256                 0.00000 -27.256                               F
OWISU 51 WienSued     0 0        0.00000 0.00000 0.00000 0.00000
OWISU 52 WienSued     0 0        0.00000 0.00000 0.00000 0.00000
OWISU 53 WienSued     0 0        0.00000 0.00000 0.00000 0.00000
OWIWE 51 WienWest     0 0        124.616 0.00000 0.00000 0.00000
OWIWE 52 WienWest     0 0        12.5113 0.00000 0.00000 0.00000
OWNDF 51 Wiener_Neudo 0 0        179.827 0.00000 -20.733 0.00000 0.00000 -31.700                                               F
OWNST 51 Wiener_Neust 0 0        29.2211 0.00000 -67.098 0.00000 0.00000 -138.43                                               F
OWNST 52 Wiener_Neust 0 0        0.00000 0.00000 0.00000 0.00000
OWNSTF51 Wiener_Neust 0 0        0.00000 0.00000 0.00000 0.00000
OWOELL51 Woellersdorf 0 0        0.00000 0.00000 0.00000 0.00000
OWOLFS51 Wolfsberg    0 0        13.4678 0.00000 -10.049 0.00000 0.00000 -14.272                                               F
OWOLFS52 Wolfsberg    0 0        0.00000 0.00000 0.00000 0.00000
OYAMST51 Y_Ybbsfeld_A 0 0        0.00000 0.00000 0.00000 0.00000
OYAMST52 Y_Ybbsfeld_A 0 0        0.00000 0.00000 0.00000 0.00000
OYBBSF21 Ybbsfeld     0 0        0.00000 0.00000 0.00000 -25.753                 0.00000 -25.753                               F
OYBBSF51 Ybbsfeld     0 0        0.00000 0.00000 0.00000 0.00000
OYBBSF52 Ybbsfeld     0 0        0.00000 0.00000 0.00000 0.00000
OYFLAG51 Y_Flachgau   0 0        0.00000 0.00000 0.00000 0.00000
OYGRAN51 Y_Graz_Nord  0 0        0.00000 0.00000 0.00000 0.00000
OYGRAN52 Y_Graz_Nord  0 0        0.00000 0.00000 0.00000 0.00000
OYHESS51 Y_Hessenberg 0 0        0.00000 0.00000 0.00000 0.00000
OYHIMU51 Y_Hintermuhr 0 0        0.00000 0.00000 0.00000 0.00000
OYLASS51 Y_Lassee     0 0        0.00000 0.00000 0.00000 0.00000
OYLASS52 Y_Lassee     0 0        0.00000 0.00000 0.00000 0.00000
OYLOOS51 Y_Loosdorf   0 0        0.00000 0.00000 0.00000 0.00000
OYLOOS52 Y_Loosdorf   0 0        0.00000 0.00000 0.00000 0.00000
OYMAUT51 Y_Mauth      0 0        0.00000 0.00000 0.00000 0.00000
OYMELL11 Y_Mellach    0 0        0.00000 0.00000 0.00000 0.00000
OYMELL12 Y_Mellach    0 0        0.00000 0.00000 0.00000 0.00000
OYOBER51 Y_Oberdraubu 0 0        0.00000 0.00000 0.00000 0.00000
OYPBEU21 YbbsPersenbe 0 0        0.00000 6.33363 -41.088 0.00000 0.00000 -238.80 6.33363 0.00000                               F
OYPBEU22 YbbsPersenbe 0 0        0.00000 1.69371 -41.088 0.00000 0.00000 -238.80 1.69371 0.00000                               F
OYPBEU23 YbbsPersenbe 0 0        0.00000 1.57942 -41.088 0.00000 0.00000 -238.80 1.57942 0.00000                               F
OYPONG51 Y_Pongau_Pin 0 0        0.00000 0.00000 0.00000 0.00000
OYREIS51 Y_ReisseckKr 0 0        0.00000 0.00000 0.00000 0.00000
OYSALZ21 Y_Salzach    0 0        0.00000 0.00000 0.00000 0.00000
OYSALZ22 Y_Salzach    0 0        0.00000 0.00000 0.00000 0.00000
OYSCHA51 Y_Scharndorf 0 0        0.00000 0.00000 0.00000 0.00000
OYSCHA52 Y_Scharndorf 0 0        0.00000 0.00000 0.00000 0.00000
OYSTRO51 Y_Strobl     0 0        0.00000 0.00000 0.00000 0.00000
OZAYA 11 Zaya         0 0        0.00000 116.159 0.00000 0.00000                 116.159 0.00000                               F
OZAYA 12 Zaya         0 0        0.00000 0.00000 0.00000 0.00000
OZAYA 21 Zaya         0 0        0.00000 98.3985 0.00000 0.00000                 98.3985 0.00000                               F
OZAYA 22 Zaya         0 0        0.00000 0.00000 0.00000 0.00000
OZAYA 51 Zaya         0 0        19.9176 0.00000 -0.0397 0.00000 0.00000 -0.4940                                               F
OZAYA 52 Zaya         0 0        0.00000 0.00000 0.00000 0.00000
OZAYA 58 Zaya         0 0        0.00000 0.00000 0.00000 0.00000
OZAYA 59 Zaya         0 0        0.00000 0.00000 0.00000 0.00000
OZELL 11 ZellZiller   0 0        0.00000 0.00000 0.00000 -41.484                 0.00000 -41.484                               F
OZELL 21 ZellZiller   0 0        0.00000 223.875 -12.000 0.00000 -12.000 -12.000 223.875 0.00000                               F
OZELL 22 ZellZiller   0 0        0.00000 0.00000 0.00000 -14.294                 0.00000 -14.294                               F
OZELL 23 ZellZiller   0 0        0.00000 0.00000 0.00000 0.00000
OZELL 51 Zell_Ziller  0 0        39.5979 0.00000 -24.713 0.00000 0.00000 -158.44                                               F
OZELL 52 Zell_Ziller  0 0        0.00000 0.00000 0.00000 0.00000
OZELTW21 Zeltweg      0 0        0.00000 17.1255 0.00000 0.00000                 17.1255 0.00000                               F
OZELTW51 Zeltweg      0 0        0.00000 0.00000 -25.206 0.00000 0.00000 -109.31                                               F
OZELTW52 Zeltweg      0 0        0.00000 0.00000 0.00000 0.00000
OZIRL 51 Zirl         0 0        15.3516 0.00000 0.00000 0.00000
OZIRL 52 Zirl         0 0        0.00000 0.00000 0.00000 0.00000
OZURND11 Zurndorf     0 2 413.89 0.00000 153.758 0.00000 -44.437                 153.758 -100.00                               F
OZURND51 Zurndorf     0 0        0.00000 0.00000 -64.929 0.00000 0.00000 -178.78                                               F
OZURND52 Zurndorf     0 0        0.00000 0.00000 -131.49 0.00000 0.00000 -361.73                                               F
OZWETT51 Zwettl       0 0        31.9004 0.00000 -32.915 0.00000 0.00000 -48.351                                               F
OZWETT52 Zwettl       0 0        0.00000 0.00000 0.00000 0.00000
##ZAL
AAES  5  AES          0 0        18.5886 0.13497 0.00000 0.00000
AARSTI5  HPP ARSTI    0 0        0.00000 0.00000 0.00000 0.00000 0.00000 -5.0000 5.00000 -10.000                               F
AASHT15  HPP ASHTA 1  0 2 115.69 0.00000 0.00000 -13.000 5.00000 0.00000 -60.000 5.00000 -10.000                               F
AASHT25  HPP ASHTA 2  0 2 115.00 0.00000 0.00000 -13.000 -1.8036 0.00000 -60.000 5.00000 -10.000                               F
ABABIC2  BABIC        0 0        0.00000 0.00000 0.00000 0.00000
ABABIC5  BABIC        0 0        -0.3116 1.00066 0.00000 0.00000
ABALSH5  BALSH        0 0        0.00000 6.00000 0.00000 0.00000
ABANJE5  HPP BANJE    0 2 111.61 0.00000 0.00000 -6.0000 -10.000 0.00000 -72.000 5.00000 -10.000                               F
ABCURR5  B CURRI      0 0        4.13080 2.99934 0.00000 0.00000
ABELE 5  HPP BELE     0 2 115.00 0.00000 0.00000 -12.000 -5.8171 0.00000 -30.800 5.00000 -10.000                               F
ABELSH5  BELSH        0 0        8.26160 5.74373 0.00000 0.00000
ABERAT5  BERAT        0 0        6.19620 0.00000 0.00000 0.00000
ABISHN5  HPP Bishnice 0 0        0.00000 0.00000 0.00000 0.00000 0.00000 -4.0000 5.00000 -10.000                               F
ABISTR3  BISTRRIC     0 0        0.00000 0.00000 0.00000 0.00000
ABISTR5  HPP BISTRIC  0 2 112.66 4.13080 6.67353 -16.500 -10.000 0.00000 -27.000 5.00000 -10.000                               F
...